testing/cases_bad/case_RAND4_A2_Z_scale.dat
01/01/26  EE574 GEN            100.0  2026W  RAND4
BUS DATA FOLLOWS                            4 ITEMS
   1 Bus1                3 1.060   0.00     0.00     0.00   352.08  126.39                                  0.0000  0.0000     0
   2 Bus2                0 0.977 -10.50   218.21    44.53     0.00    0.00                                  0.0000  0.0000     0
   3 Bus3                0 1.019  -7.05    70.12   -15.53     0.00    0.00                                  0.0000  0.0000     0
   4 Bus4                0 0.965  -5.54    52.49    43.37     0.00    0.00                                  0.0000  0.0000     0
-999
BRANCH DATA FOLLOWS                         4 ITEMS
   1    2        1    0.01705    0.10711   0.01831                           1.000 0.0
   1    3        1    0.03581    0.12119   0.01329                           1.000 0.0
   1    4        1    0.00833    0.19489   0.02503                           1.000 0.0
   2    3        1    0.50356    1.76512   0.03825                           1.000 0.0
-999
